scripts/PVSystems_10.dss
New PVSystem.PV_1 bus1=t_bus1003_l.1.2.3.0 phases=3 kV=0.208 kVA=1.341 Pmpp=1.341 model=1 conn=wye pf=1 irradiance=1 temperature=25 daily=PVShape Tdaily=TempShape
New PVSystem.PV_2 bus1=t_bus1004_l.1.2.3.0 phases=3 kV=0.208 kVA=0.792 Pmpp=0.792 model=1 conn=wye pf=1 irradiance=1 temperature=25 daily=PVShape Tdaily=TempShape
New PVSystem.PV_3 bus1=t_bus1005_l.1.2.3.0 phases=3 kV=0.208 kVA=1.028 Pmpp=1.028 model=1 conn=wye pf=1 irradiance=1 temperature=25 daily=PVShape Tdaily=TempShape
New PVSystem.PV_4 bus1=t_bus1006_l.1.2 phases=2 kV=0.208 kVA=0.722 Pmpp=0.722 model=1 conn=wye pf=1 irradiance=1 temperature=25 daily=PVShape Tdaily=TempShape
New PVSystem.PV_5 bus1=t_bus1008_l.1.2.3.0 phases=3 kV=0.208 kVA=0.714 Pmpp=0.714 model=1 conn=wye pf=1 irradiance=1 temperature=25 daily=PVShape Tdaily=TempShape
New PVSystem.PV_6 bus1=t_bus1009_l.1.2.3.0 phases=3 kV=0.208 kVA=0.985 Pmpp=0.985 model=1 conn=wye pf=1 irradiance=1 temperature=25 daily=PVShape Tdaily=TempShape
New PVSystem.PV_7 bus1=t_bus2002_l.1.2.3.0 phases=3 kV=0.208 kVA=4.628 Pmpp=4.628 model=1 conn=wye pf=1 irradiance=1 temperature=25 daily=PVShape Tdaily=TempShape
New PVSystem.PV_8 bus1=t_bus2003_l.1.2.3.0 phases=3 kV=0.208 kVA=0.681 Pmpp=0.681 model=1 conn=wye pf=1 irradiance=1 temperature=25 daily=PVShape Tdaily=TempShape
New PVSystem.PV_9 bus1=t_bus2029_l.1.2.3.0 phases=3 kV=0.208 kVA=0.795 Pmpp=0.795 model=1 conn=wye pf=1 irradiance=1 temperature=25 daily=PVShape Tdaily=TempShape
New PVSystem.PV_10 bus1=t_bus2030_l.1.2.3.0 phases=3 kV=0.208 kVA=1.057 Pmpp=1.057 model=1 conn=wye pf=1 irradiance=1 temperature=25 daily=PVShape Tdaily=TempShape
New PVSystem.PV_11 bus1=t_bus2035_l.1.2.3.0 phases=3 kV=0.208 kVA=0.641 Pmpp=0.641 model=1 conn=wye pf=1 irradiance=1 temperature=25 daily=PVShape Tdaily=TempShape
New PVSystem.PV_12 bus1=t_bus2040_l.1.2.3.0 phases=3 kV=0.208 kVA=3.893 Pmpp=3.893 model=1 conn=wye pf=1 irradiance=1 temperature=25 daily=PVShape Tdaily=TempShape
New PVSystem.PV_13 bus1=t_bus2042_l.1.2.3.0 phases=3 kV=0.208 kVA=0.758 Pmpp=0.758 model=1 conn=wye pf=1 irradiance=1 temperature=25 daily=PVShape Tdaily=TempShape
New PVSystem.PV_14 bus1=t_bus2043_l.1.2.3.0 phases=3 kV=0.208 kVA=1.007 Pmpp=1.007 model=1 conn=wye pf=1 irradiance=1 temperature=25 daily=PVShape Tdaily=TempShape
New PVSystem.PV_15 bus1=t_bus2046_l.1.2 phases=2 kV=0.208 kVA=0.523 Pmpp=0.523 model=1 conn=wye pf=1 irradiance=1 temperature=25 daily=PVShape Tdaily=TempShape
New PVSystem.PV_16 bus1=t_bus2047_l.1.2 phases=2 kV=0.208 kVA=0.546 Pmpp=0.546 model=1 conn=wye pf=1 irradiance=1 temperature=25 daily=PVShape Tdaily=TempShape
New PVSystem.PV_17 bus1=t_bus2048_l.1.2 phases=2 kV=0.208 kVA=0.508 Pmpp=0.508 model=1 conn=wye pf=1 irradiance=1 temperature=25 daily=PVShape Tdaily=TempShape
New PVSystem.PV_18 bus1=t_bus2052_l.1.2.3.0 phases=3 kV=0.208 kVA=3.588 Pmpp=3.588 model=1 conn=wye pf=1 irradiance=1 temperature=25 daily=PVShape Tdaily=TempShape
New PVSystem.PV_19 bus1=t_bus2053_l.1.2.3.0 phases=3 kV=0.208 kVA=2.596 Pmpp=2.596 model=1 conn=wye pf=1 irradiance=1 temperature=25 daily=PVShape Tdaily=TempShape
New PVSystem.PV_20 bus1=t_bus2055_l.1.2 phases=2 kV=0.208 kVA=0.616 Pmpp=0.616 model=1 conn=wye pf=1 irradiance=1 temperature=25 daily=PVShape Tdaily=TempShape
New PVSystem.PV_21 bus1=t_bus2058_l.1.2.3.0 phases=3 kV=0.208 kVA=3.498 Pmpp=3.498 model=1 conn=wye pf=1 irradiance=1 temperature=25 daily=PVShape Tdaily=TempShape
New PVSystem.PV_22 bus1=t_bus3002_l.1.2.3.0 phases=3 kV=0.208 kVA=0.690 Pmpp=0.690 model=1 conn=wye pf=1 irradiance=1 temperature=25 daily=PVShape Tdaily=TempShape
New PVSystem.PV_23 bus1=t_bus3006_l.1.2.3.0 phases=3 kV=0.208 kVA=0.543 Pmpp=0.543 model=1 conn=wye pf=1 irradiance=1 temperature=25 daily=PVShape Tdaily=TempShape
New PVSystem.PV_24 bus1=t_bus3007_l.1.2.3.0 phases=3 kV=0.208 kVA=0.829 Pmpp=0.829 model=1 conn=wye pf=1 irradiance=1 temperature=25 daily=PVShape Tdaily=TempShape
New PVSystem.PV_25 bus1=t_bus3009_l.1.2 phases=2 kV=0.208 kVA=0.514 Pmpp=0.514 model=1 conn=wye pf=1 irradiance=1 temperature=25 daily=PVShape Tdaily=TempShape
New PVSystem.PV_26 bus1=t_bus3011_l.1.2 phases=2 kV=0.208 kVA=0.523 Pmpp=0.523 model=1 conn=wye pf=1 irradiance=1 temperature=25 daily=PVShape Tdaily=TempShape
New PVSystem.PV_27 bus1=t_bus3012_l.1.2 phases=2 kV=0.208 kVA=0.573 Pmpp=0.573 model=1 conn=wye pf=1 irradiance=1 temperature=25 daily=PVShape Tdaily=TempShape
New PVSystem.PV_28 bus1=t_bus3017_l.1.2 phases=2 kV=0.208 kVA=0.766 Pmpp=0.766 model=1 conn=wye pf=1 irradiance=1 temperature=25 daily=PVShape Tdaily=TempShape
New PVSystem.PV_29 bus1=t_bus3018_l.1.2 phases=2 kV=0.208 kVA=0.535 Pmpp=0.535 model=1 conn=wye pf=1 irradiance=1 temperature=25 daily=PVShape Tdaily=TempShape
New PVSystem.PV_30 bus1=t_bus3020_l.1.2 phases=2 kV=0.208 kVA=0.712 Pmpp=0.712 model=1 conn=wye pf=1 irradiance=1 temperature=25 daily=PVShape Tdaily=TempShape
New PVSystem.PV_31 bus1=t_bus3023_l.1.2 phases=2 kV=0.208 kVA=0.629 Pmpp=0.629 model=1 conn=wye pf=1 irradiance=1 temperature=25 daily=PVShape Tdaily=TempShape
New PVSystem.PV_32 bus1=t_bus3024_l.1.2 phases=2 kV=0.208 kVA=0.593 Pmpp=0.593 model=1 conn=wye pf=1 irradiance=1 temperature=25 daily=PVShape Tdaily=TempShape
New PVSystem.PV_33 bus1=t_bus3025_l.1.2 phases=2 kV=0.208 kVA=0.602 Pmpp=0.602 model=1 conn=wye pf=1 irradiance=1 temperature=25 daily=PVShape Tdaily=TempShape
New PVSystem.PV_34 bus1=t_bus3026_l.1.2 phases=2 kV=0.208 kVA=0.527 Pmpp=0.527 model=1 conn=wye pf=1 irradiance=1 temperature=25 daily=PVShape Tdaily=TempShape
New PVSystem.PV_35 bus1=t_bus3027_l.1.2 phases=2 kV=0.208 kVA=0.645 Pmpp=0.645 model=1 conn=wye pf=1 irradiance=1 temperature=25 daily=PVShape Tdaily=TempShape
New PVSystem.PV_36 bus1=t_bus3028_l.1.2 phases=2 kV=0.208 kVA=0.798 Pmpp=0.798 model=1 conn=wye pf=1 irradiance=1 temperature=25 daily=PVShape Tdaily=TempShape
New PVSystem.PV_37 bus1=t_bus3031_l.1.2.3.0 phases=3 kV=0.208 kVA=0.505 Pmpp=0.505 model=1 conn=wye pf=1 irradiance=1 temperature=25 daily=PVShape Tdaily=TempShape
New PVSystem.PV_38 bus1=t_bus3032_l.1.2.3.0 phases=3 kV=0.208 kVA=0.531 Pmpp=0.531 model=1 conn=wye pf=1 irradiance=1 temperature=25 daily=PVShape Tdaily=TempShape
New PVSystem.PV_39 bus1=t_bus3033_l.1.2.3.0 phases=3 kV=0.208 kVA=0.617 Pmpp=0.617 model=1 conn=wye pf=1 irradiance=1 temperature=25 daily=PVShape Tdaily=TempShape
New PVSystem.PV_40 bus1=t_bus3034_l.1.2.3.0 phases=3 kV=0.208 kVA=0.543 Pmpp=0.543 model=1 conn=wye pf=1 irradiance=1 temperature=25 daily=PVShape Tdaily=TempShape
New PVSystem.PV_41 bus1=t_bus3035_l.1.2.3.0 phases=3 kV=0.208 kVA=0.717 Pmpp=0.717 model=1 conn=wye pf=1 irradiance=1 temperature=25 daily=PVShape Tdaily=TempShape
New PVSystem.PV_42 bus1=t_bus3041_l.1.2 phases=2 kV=0.208 kVA=0.607 Pmpp=0.607 model=1 conn=wye pf=1 irradiance=1 temperature=25 daily=PVShape Tdaily=TempShape
New PVSystem.PV_43 bus1=t_bus3047_l.1.2.3.0 phases=3 kV=0.208 kVA=0.672 Pmpp=0.672 model=1 conn=wye pf=1 irradiance=1 temperature=25 daily=PVShape Tdaily=TempShape
New PVSystem.PV_44 bus1=t_bus3064_l.1.2 phases=2 kV=0.208 kVA=0.564 Pmpp=0.564 model=1 conn=wye pf=1 irradiance=1 temperature=25 daily=PVShape Tdaily=TempShape
New PVSystem.PV_45 bus1=t_bus3067_l.1.2 phases=2 kV=0.208 kVA=0.575 Pmpp=0.575 model=1 conn=wye pf=1 irradiance=1 temperature=25 daily=PVShape Tdaily=TempShape
New PVSystem.PV_46 bus1=t_bus3077_l.1.2.3.0 phases=3 kV=0.208 kVA=5.000 Pmpp=5.000 model=1 conn=wye pf=1 irradiance=1 temperature=25 daily=PVShape Tdaily=TempShape
New PVSystem.PV_47 bus1=t_bus3081_l.1.2.3.0 phases=3 kV=0.208 kVA=0.534 Pmpp=0.534 model=1 conn=wye pf=1 irradiance=1 temperature=25 daily=PVShape Tdaily=TempShape
New PVSystem.PV_48 bus1=t_bus3085_l.1.2 phases=2 kV=0.208 kVA=0.537 Pmpp=0.537 model=1 conn=wye pf=1 irradiance=1 temperature=25 daily=PVShape Tdaily=TempShape
New PVSystem.PV_49 bus1=t_bus3097_l.1.2 phases=2 kV=0.208 kVA=0.522 Pmpp=0.522 model=1 conn=wye pf=1 irradiance=1 temperature=25 daily=PVShape Tdaily=TempShape
New PVSystem.PV_50 bus1=t_bus3098_l.1.2 phases=2 kV=0.208 kVA=0.748 Pmpp=0.748 model=1 conn=wye pf=1 irradiance=1 temperature=25 daily=PVShape Tdaily=TempShape
New PVSystem.PV_51 bus1=t_bus3103_l.1.2 phases=2 kV=0.208 kVA=0.574 Pmpp=0.574 model=1 conn=wye pf=1 irradiance=1 temperature=25 daily=PVShape Tdaily=TempShape
New PVSystem.PV_52 bus1=t_bus3104_l.1.2 phases=2 kV=0.208 kVA=1.318 Pmpp=1.318 model=1 conn=wye pf=1 irradiance=1 temperature=25 daily=PVShape Tdaily=TempShape
New PVSystem.PV_53 bus1=t_bus3106_l.1.2 phases=2 kV=0.208 kVA=1.222 Pmpp=1.222 model=1 conn=wye pf=1 irradiance=1 temperature=25 daily=PVShape Tdaily=TempShape
New PVSystem.PV_54 bus1=t_bus3109_l.1.2 phases=2 kV=0.208 kVA=0.518 Pmpp=0.518 model=1 conn=wye pf=1 irradiance=1 temperature=25 daily=PVShape Tdaily=TempShape
New PVSystem.PV_55 bus1=t_bus3110_l.1.2 phases=2 kV=0.208 kVA=0.695 Pmpp=0.695 model=1 conn=wye pf=1 irradiance=1 temperature=25 daily=PVShape Tdaily=TempShape
New PVSystem.PV_56 bus1=t_bus3111_l.1.2 phases=2 kV=0.208 kVA=0.742 Pmpp=0.742 model=1 conn=wye pf=1 irradiance=1 temperature=25 daily=PVShape Tdaily=TempShape
New PVSystem.PV_57 bus1=t_bus3112_l.1.2 phases=2 kV=0.208 kVA=0.695 Pmpp=0.695 model=1 conn=wye pf=1 irradiance=1 temperature=25 daily=PVShape Tdaily=TempShape
New PVSystem.PV_58 bus1=t_bus3115_l.1.2 phases=2 kV=0.208 kVA=0.630 Pmpp=0.630 model=1 conn=wye pf=1 irradiance=1 temperature=25 daily=PVShape Tdaily=TempShape
New PVSystem.PV_59 bus1=t_bus3127_l.1.2 phases=2 kV=0.208 kVA=0.581 Pmpp=0.581 model=1 conn=wye pf=1 irradiance=1 temperature=25 daily=PVShape Tdaily=TempShape
New PVSystem.PV_60 bus1=t_bus3131_l.1.2 phases=2 kV=0.208 kVA=0.521 Pmpp=0.521 model=1 conn=wye pf=1 irradiance=1 temperature=25 daily=PVShape Tdaily=TempShape
New PVSystem.PV_61 bus1=t_bus3132_l.1.2 phases=2 kV=0.208 kVA=0.621 Pmpp=0.621 model=1 conn=wye pf=1 irradiance=1 temperature=25 daily=PVShape Tdaily=TempShape
New PVSystem.PV_62 bus1=t_bus3134_l.1.2 phases=2 kV=0.208 kVA=0.730 Pmpp=0.730 model=1 conn=wye pf=1 irradiance=1 temperature=25 daily=PVShape Tdaily=TempShape
New PVSystem.PV_63 bus1=t_bus3136_l.1.2 phases=2 kV=0.208 kVA=0.803 Pmpp=0.803 model=1 conn=wye pf=1 irradiance=1 temperature=25 daily=PVShape Tdaily=TempShape
New PVSystem.PV_64 bus1=t_bus3137_l.1.2 phases=2 kV=0.208 kVA=0.849 Pmpp=0.849 model=1 conn=wye pf=1 irradiance=1 temperature=25 daily=PVShape Tdaily=TempShape
New PVSystem.PV_65 bus1=t_bus3138_l.1.2 phases=2 kV=0.208 kVA=0.757 Pmpp=0.757 model=1 conn=wye pf=1 irradiance=1 temperature=25 daily=PVShape Tdaily=TempShape
New PVSystem.PV_66 bus1=t_bus3143_l.1.2 phases=2 kV=0.208 kVA=0.571 Pmpp=0.571 model=1 conn=wye pf=1 irradiance=1 temperature=25 daily=PVShape Tdaily=TempShape
New PVSystem.PV_67 bus1=t_bus3148_l.1.2 phases=2 kV=0.208 kVA=0.612 Pmpp=0.612 model=1 conn=wye pf=1 irradiance=1 temperature=25 daily=PVShape Tdaily=TempShape
New PVSystem.PV_68 bus1=t_bus3153_l.1.2 phases=2 kV=0.208 kVA=0.552 Pmpp=0.552 model=1 conn=wye pf=1 irradiance=1 temperature=25 daily=PVShape Tdaily=TempShape
New PVSystem.PV_69 bus1=t_bus3157_l.1.2 phases=2 kV=0.208 kVA=0.595 Pmpp=0.595 model=1 conn=wye pf=1 irradiance=1 temperature=25 daily=PVShape Tdaily=TempShape
New PVSystem.PV_70 bus1=t_bus3158_l.1.2 phases=2 kV=0.208 kVA=0.637 Pmpp=0.637 model=1 conn=wye pf=1 irradiance=1 temperature=25 daily=PVShape Tdaily=TempShape
New PVSystem.PV_71 bus1=t_bus3159_l.1.2 phases=2 kV=0.208 kVA=0.587 Pmpp=0.587 model=1 conn=wye pf=1 irradiance=1 temperature=25 daily=PVShape Tdaily=TempShape